Version 4
SHEET 1 880 680
WIRE 16 16 -128 16
WIRE 176 16 16 16
WIRE 352 16 176 16
WIRE -128 128 -128 16
WIRE 16 128 16 16
WIRE 176 128 176 16
WIRE 352 128 352 16
WIRE -128 368 -128 208
WIRE 16 368 16 208
WIRE 16 368 -128 368
WIRE 96 368 16 368
WIRE 176 368 176 208
WIRE 176 368 96 368
WIRE 352 368 352 208
WIRE 352 368 176 368
WIRE 96 464 96 368
FLAG 96 464 0
SYMBOL res 0 112 R0
WINDOW 3 36 76 Left 1
SYMATTR Value 50 ohm
SYMATTR InstName R1
SYMBOL res 160 112 R0
WINDOW 3 36 76 Left 1
SYMATTR Value 100 ohm
SYMATTR InstName R2
SYMBOL res 336 112 R0
WINDOW 3 36 76 Left 1
SYMATTR Value 150 ohm
SYMATTR InstName R3
SYMBOL voltage -128 112 R0
WINDOW 3 24 96 Left 1
SYMATTR Value 220 volts
SYMATTR InstName V1
TEXT -160 488 Left 2 !.tran 1
